pylon/test/data/sample30.raw
0,    100.00, 30 / PSS(tm)E-30 RAW created by rawd30  FRI, FEB 26 2010  15:35
PSS(TM)E SAMPLE CASE
ALL DATA CATEGORIES WITH SEQUENCE DATA
   101,'NUC-A       ',  21.6000,2,     0.000,     0.000,   1,   1,1.01000, -10.4286,   1
   102,'NUC-B       ',  21.6000,2,     0.000,     0.000,   1,   1,1.01000, -10.7806,   1
   151,'NUCPLNT     ', 500.0000,1,    11.120,  -600.000,   1,   1,1.00219, -13.5685,   1
   152,'MID500      ', 500.0000,1,     1.630,    50.000,   1,   2,1.04377, -23.4406,   1
   153,'MID230      ', 230.0000,1,     0.000,     0.000,   1,   3,1.05721, -25.1919,   1
   154,'DOWNTN      ', 230.0000,1,     2.450,   200.000,   1,   3,0.99185, -32.4867,   1
   155,'FACTS TE    ', 230.0000,1,     0.000,     0.000,   1,   4,1.01723, -23.6357,   1
   201,'HYDRO       ', 500.0000,1,     3.670,  -500.000,   2,   7,0.99007, -18.7119,   2
   202,'EAST500     ', 500.0000,1,     0.000,     0.000,   2,   2,1.02108, -25.6705,   2
   203,'EAST230     ', 230.0000,1,     0.000,    50.000,   2,   8,1.00000, -29.1257,   2
   204,'SUB500      ', 500.0000,1,     0.000,     0.000,   2,   8,1.03038, -30.8605,   2
   205,'SUB230      ', 230.0000,1,     2.780,   300.000,   2,   8,1.00000, -33.1707,   2
   206,'URBGEN      ',  18.0000,2,     0.000,     0.000,   2,   8,1.00000, -30.7158,   2
   207,'DUPONT      ', 500.0000,1,     0.000,     0.000,   2,   7,1.01406, -24.9621,   2
   211,'HYDRO_G     ',  20.0000,2,     0.000,     0.000,   2,   7,1.00000, -14.0566,   2
   212,'INVERT1     ', 230.0000,1,     5.130,   400.000,   2,   7,1.02695, -31.5471,   2
   213,'INVERT2     ', 230.0000,1,     5.140,   400.000,   2,   7,1.10677, -34.8128,   2
   214,'LOADER      ', 230.0000,1,     0.000,     0.000,   2,   7,1.07726, -36.2426,   2
   215,'URBANEAST1  ',  18.0000,1,     0.000,     0.000,   2,   8,0.98539, -33.1092,   2
   216,'URBANEAST1  ', 230.0000,1,     0.000,     0.000,   2,   8,0.99637, -33.1476,   2
   217,'URBANEAST1  ', 230.0000,1,     0.000,     0.000,   2,   8,0.99733, -33.1537,   2
   218,'URBANEAST1  ', 230.0000,1,     0.000,     0.000,   2,   8,0.99769, -33.1559,   2
   301,'NORTH       ', 765.0000,3,     0.000,     0.000,   3,   5,1.00000,   0.0000,   3
   401,'COGEN-1     ', 500.0000,3,     0.000,     0.000,   4,   9,1.00000,   0.0000,   4
   402,'COGEN-2     ', 500.0000,3,     0.000,     0.000,   6,   9,1.00000,   0.0000,   4
  3001,'MINE        ', 230.0000,1,     0.000,     0.000,   5,   6,1.02370,  -4.0297,   5
  3002,'E. MINE     ', 500.0000,1,     0.000,     0.000,   5,   6,0.99933,  -2.3463,   5
  3003,'S. MINE     ', 230.0000,1,     0.000,     0.000,   5,   6,1.01916,  -7.4600,   5
  3004,'WEST        ', 500.0000,1,     0.000,     0.000,   5,   6,1.01493, -18.2430,   5
  3005,'WEST        ', 230.0000,1,     0.000,     0.000,   5,   2,1.00580, -19.2456,   5
  3006,'UPTOWN      ', 230.0000,1,     0.000,     0.000,   5,   4,1.05721, -25.1919,   5
  3007,'RURAL       ', 230.0000,1,     0.000,     0.000,   5,   4,0.98456, -23.4443,   5
  3008,'CATDOG      ', 230.0000,1,     0.000,     0.000,   5,   4,0.99000, -24.8894,   5
  3009,'URBANWEST1  ', 230.0000,1,     0.000,     0.000,   5,   4,0.99048, -24.9090,   5
  3010,'URBANWEST2  ',  21.6000,1,     0.000,     0.000,   5,   4,0.96664,   2.1269,   5
  3011,'MINE_G      ',  19.4000,3,     0.000,     0.000,   5,   6,1.00000,   0.0000,   5
  3018,'CATDOG_G    ',  13.8000,2,     0.000,     0.000,   5,   4,0.99000, -21.1195,   5
  3021,'WDUM        ',  18.0000,1,     0.000,  1320.000,   3,   5,1.00000, -19.9491,   3
  3022,'EDUM        ',  18.0000,1,     0.000,  1080.000,   3,   5,1.00000, -19.2600,   3
  9154,'WINDBUS1    ',   4.1600,2,     0.000,     0.000,   1,   3,1.00262, -28.8545,   1
  9204,'WINDBUS2    ',   0.5750,2,     0.000,     0.000,   2,   8,1.04738, -28.8276,   2
 93002,'WINDBUS3    ',   0.6900,2,     0.000,     0.000,   5,   6,0.99622,   1.4362,   5
 0 / END OF BUS DATA, BEGIN LOAD DATA
   152,'1 ',1,   1,   1,  1200.000,   360.000,   868.340,   360.502,   837.794,  -351.338,   1
   153,'1 ',1,   1,   1,   200.000,   100.000,     0.000,     0.000,     0.000,     0.000,   1
   154,'1 ',1,   1,   1,   400.000,   200.000,     0.000,     0.000,     0.000,     0.000,   1
   154,'2 ',1,   1,   1,   250.000,   200.000,     0.000,     0.000,     0.000,     0.000,   1
   154,'3 ',1,   1,   1,   250.000,   100.000,     0.000,     0.000,     0.000,     0.000,   1
   154,'MO',1,   1,   1,   100.000,    80.000,     0.000,     0.000,     0.000,     0.000,   1
   203,'1 ',1,   2,   2,   500.000,   250.000,     0.000,     0.000,     0.000,     0.000,   2
   205,'1 ',1,   2,   2,  1800.000,   600.000,     0.000,     0.000,     0.000,     0.000,   2
   205,'B ',1,   2,   2,    90.000,     5.000,   110.000,    25.000,    20.000,    10.000,   2
   205,'C ',1,   2,   2,    60.000,    15.000,    45.000,     5.000,    35.000,    30.000,   2
   214,'1 ',1,   2,   2,   500.000,    75.000,     0.000,     0.000,     0.000,     0.000,   2
   215,'U1',1,   2,   4,     0.000,   140.000,     0.000,     0.000,     0.000,     0.000,   2
   216,'U1',1,   2,   4,     0.000,    12.000,     0.000,     0.000,     0.000,     0.000,   2
   217,'U1',1,   2,   4,     0.000,    10.000,     0.000,     0.000,     0.000,     0.000,   2
   218,'U1',1,   2,   4,     0.000,     9.000,     0.000,     0.000,     0.000,     0.000,   2
  3005,'1 ',1,   5,   5,   100.000,    50.000,     0.000,     0.000,     0.000,     0.000,   5
  3007,'1 ',1,   5,   5,   200.000,    75.000,     0.000,     0.000,     0.000,     0.000,   5
  3008,'1 ',1,   5,   5,   200.000,    75.000,     0.000,     0.000,     0.000,     0.000,   5
  3009,'1 ',1,   5,   4,     1.100,     0.900,     0.000,     0.000,     0.000,     0.000,   5
  3010,'1 ',1,   5,   4,    12.000,     5.000,     0.000,     0.000,     0.000,     0.000,   5
 0 / END OF LOAD DATA, BEGIN GENERATOR DATA
   101,'1 ',   750.000,   125.648,   400.000,  -100.000,1.01000,     0,   900.000,   0.01000,   0.30000,   0.00000,   0.00000,1.00000,1,  100.0,   800.000,    50.000,   1,0.1289,   2,0.2524,   3,0.1031,   4,0.5156
   102,'1 ',   650.000,   112.426,   410.000,  -110.000,1.01000,     0,   950.000,   0.01050,   0.32000,   0.00000,   0.00000,1.00000,1,  100.0,   700.000,    33.000,   1,0.3647,   2,0.1838,   3,0.0751,   4,0.3764
   206,'1 ',   800.000,   283.913,   500.000,  -400.000,1.00000,     0,  1000.000,   0.01060,   0.25100,   0.00000,   0.00000,1.00000,1,  100.0,   850.000,    50.000,   1,0.1034,   2,0.4006,   3,0.0825,   4,0.4135
   211,'1 ',   600.000,    86.670,   510.000,  -100.000,1.00000,     0,   725.000,   0.01080,   0.26200,   0.00000,   0.00000,1.00000,1,  100.0,   616.000,    30.000,   1,0.1423,   2,0.2210,   3,0.1842,   4,0.4525
   301,'1 ',   996.883,   299.542,   700.000,  -650.000,1.00000,     0,  1067.000,   0.01090,   0.23000,   0.01400,   0.12600,1.02500,1,   98.0,  1010.000,   320.000,   1,0.1118,   2,0.2184,   3,0.0893,   4,0.5805
   301,'2 ',   996.883,   299.542,   710.000,  -600.000,1.00000,     0,  1070.000,   0.01100,   0.24000,   0.01100,   0.12700,1.02600,1,   98.0,  1011.000,   321.000,   1,0.1173,   2,0.3200,   3,0.0936,   4,0.4691
   301,'3 ',   996.883,   299.542,   720.000,  -600.000,1.00000,     0,  1075.000,   0.00800,   0.25000,   0.01200,   0.12800,1.02700,1,   98.0,  1012.000,   322.000,   1,0.1260,   2,0.2268,   3,0.1827,   4,0.4644
   401,'1 ',   321.000,   142.325,   600.000,  -100.000,1.00000,     0,   600.000,   0.01230,   0.22230,   0.00000,   0.00000,1.00000,1,   90.0,   350.000,    25.000,   1,0.1625,   2,0.2423,   3,0.0990,   4,0.4962
   402,'1 ',   321.000,   142.325,   610.000,  -110.000,1.00000,     0,   610.000,   0.00450,   0.24320,   0.00000,   0.00000,1.00000,1,   91.0,   351.000,    26.000,   1,0.1588,   2,0.2117,   3,0.1959,   4,0.4335
  3011,'1 ',  1295.142,   141.199,   620.000,  -120.000,1.00000,     0,  1050.000,   0.00760,   0.35430,   0.00000,   0.00000,1.00000,1,   92.0,  1400.000,   100.000,   1,0.1452,   2,0.1926,   3,0.2677,   4,0.3945
  3018,'1 ',   400.000,    -0.628,   300.000,  -150.000,0.99000,     0,   530.000,   0.08700,   0.35630,   0.00000,   0.00000,1.00000,1,   92.5,   500.000,    50.000,   1,0.1043,   2,0.2037,   3,0.2749,   4,0.4171
  3018,'2 ',   100.000,    -0.157,    75.000,   -75.000,0.99000,     0,   120.000,   0.02400,   0.35530,   0.00000,   0.00000,1.00000,1,   92.5,   110.000,    20.000,   1,0.3003,   2,0.1358,   3,0.2857,   4,0.2782
  9154,'W1',    10.800,     2.193,     2.193,    -2.193,1.05000,   154,    12.000,   0.00000,   0.80000,   0.00000,   0.00000,1.00000,1,  100.0,    10.800,     0.000,   1,1.0000,   0,0.0000,   0,0.0000,   0,0.0000
  9204,'W2',     6.050,     1.989,     1.989,     1.989,1.00000,     0,     8.335,   0.00000,   0.80000,   0.00000,   0.00000,1.00000,1,  100.0,     7.500,     0.000,   2,1.0000,   0,0.0000,   0,0.0000,   0,0.0000
 93002,'W3',     3.240,    -1.475,    -1.475,    -1.475,1.00000,     0,     4.000,   0.00000,   0.30220,   0.00000,   0.00000,1.00000,1,  100.0,     3.600,     0.000,   5,1.0000,   0,0.0000,   0,0.0000,   0,0.0000
 0 / END OF GENERATOR DATA, BEGIN NON-TRANSFORMER BRANCH DATA
   151,   -152,'1 ',   0.00260,   0.04600,   3.50000, 1200.00, 1100.00, 1000.00,  0.01000, -0.25000,  0.01100, -0.15000,1, 150.00,   1,0.2000,   2,0.3000,   3,0.4000,   4,0.1000
   151,   -152,'2 ',   0.00261,   0.04610,   3.51000, 1205.00, 1105.00, 1005.00,  0.01300, -0.25100,  0.01200, -0.02000,1, 149.00,   5,0.2315,   1,0.3056,   2,0.3704,   3,0.0926
   151,   -201,'1 ',   0.00100,   0.01500,   1.20000, 1206.00, 1106.00, 1006.00,  0.00000,  0.00000,  0.00000, -1.00000,1, 100.00,   2,0.3600,   3,0.2400,   4,0.3200,   5,0.0800
   152,    202,'1 ',   0.00080,   0.01000,   0.95000, 1207.00, 1107.00, 1007.00,  0.00000,  0.00000,  0.00000,  0.00000,1, 200.00,   1,0.3939,   2,0.2273,   3,0.3030,   4,0.0758
   152,  -3004,'1 ',   0.00300,   0.03000,   2.50000,    0.00,    0.00,    0.00,  0.00000,  0.00000,  0.00000,  0.00000,1, 201.00,   5,0.2379,   1,0.3033,   2,0.3667,   3,0.0922
   153,   -154,'2 ',   0.00600,   0.05400,   0.15000,  350.00,    0.00,    0.00,  0.00000,  0.00000,  0.00000,  0.00000,1,  80.00,   2,0.2727,   3,0.2727,   4,0.3636,   5,0.0909
   153,  -3006,'1 ',   0.00000,   0.00010,   0.00000,    0.00,    0.00,    0.00,  0.00000,  0.00000,  0.00000,  0.00000,1,   0.00,   1,0.3443,   2,0.2459,   3,0.3279,   4,0.0820
   154,    155,'1 ',   0.00500,   0.04500,   0.10000,  400.00,    0.00,    0.00,  0.00000,  0.00000,  0.00000,  0.00000,1,  81.00,   5,0.1914,   1,0.2535,   2,0.3065,   3,0.2486
   154,   -203,'1 ',   0.00400,   0.04000,   0.10000,  400.00,    0.00,    0.00,  0.00000,  0.00000,  0.00000,  0.00000,1, 100.00,   2,0.2000,   3,0.3000,   4,0.4000,   5,0.1000
   154,   -205,'1 ',   0.00033,   0.00333,   0.09000,  600.00,    0.00,    0.00,  0.00000,  0.00000,  0.00000,  0.00000,1, 120.00,   1,0.1667,   2,0.2500,   3,0.3333,   4,0.2500
   154,  -3008,'1 ',   0.00270,   0.02200,   0.30000,  800.00,    0.00,    0.00,  0.00000,  0.00000,  0.00000,  0.00000,1, 119.00,   5,0.1925,   1,0.2550,   2,0.3083,   3,0.2442
   201,   -202,'1 ',   0.00200,   0.02500,   2.00000, 1200.00,    0.00,    0.00,  0.00000,  0.00000,  0.00000,  0.00000,1, 300.00,   2,0.1905,   3,0.2857,   4,0.3810,   5,0.1429
   201,   -207,'C1',   0.00150,   0.01500,   1.25000, 1200.00,    0.00,    0.00,  0.00000,  0.00000,  0.00000,  0.00000,1, 250.00,   1,0.2500,   2,0.3750,   3,0.2500,   4,0.1250
   203,    205,'1 ',   0.00500,   0.04500,   0.08000,  200.00,    0.00,    0.00,  0.00000,  0.00000,  0.00000,  0.00000,1,  70.00,   5,0.1925,   1,0.2550,   2,0.3083,   3,0.2442
   204,   -207,'C2',   0.00150,   0.01500,   1.25000, 1200.00,    0.00,    0.00,  0.00000,  0.00000,  0.00000,  0.00000,1, 300.00,   2,0.2000,   3,0.3000,   4,0.4000,   5,0.1000
   205,    212,'1 ',   0.00000,   0.01000,   0.00000, 1250.00,    0.00,    0.00,  0.00000,  0.00000,  0.00000,  0.00000,1,  71.00,   1,0.2000,   2,0.3000,   3,0.4000,   4,0.1000
   205,   -214,'2 ',   0.00200,   0.02500,   2.00000, 1200.00,    0.00,    0.00,  0.00000,  0.00000,  0.00000,  0.00000,1, 100.00,   5,0.2100,   1,0.2782,   2,0.3364,   3,0.1755
   205,   -216,'3 ',   0.00500,   0.04500,   0.08000,  200.00,    0.00,    0.00,  0.00000,  0.00000,  0.00000,  0.00000,1,  81.00,   2,0.1818,   3,0.2727,   4,0.3636,   5,0.1818
   205,   -217,'4 ',   0.00500,   0.04500,   0.08000,  200.00,    0.00,    0.00,  0.00000,  0.00000,  0.00000,  0.00000,1,  80.00,   1,0.1667,   2,0.2500,   3,0.3333,   4,0.2500
   205,   -218,'5 ',   0.00500,   0.04500,   0.08000,  200.00,    0.00,    0.00,  0.00000,  0.00000,  0.00000,  0.00000,1,  59.00,   5,0.1650,   1,0.2186,   2,0.2643,   3,0.3521
   213,   -214,'1 ',   0.00000,   0.01000,   0.00000, 1250.00,    0.00,    0.00,  0.00000,  0.00000,  0.00000,  0.00000,1,   0.50,   2,0.1429,   3,0.2143,   4,0.2857,   5,0.3571
  3001,  -3003,'1 ',   0.00000,   0.00800,   0.00000,    0.00,    0.00,    0.00,  0.00000,  0.00000,  0.00000,  0.00000,1,  70.00,   1,0.1639,   2,0.2459,   3,0.3279,   4,0.2623
  3002,  -3004,'1 ',   0.00600,   0.05400,   0.09000,    0.00,    0.00,    0.00,  0.00000,  0.00000,  0.00000,  0.00000,1, 200.00,   5,0.1925,   1,0.2550,   2,0.3083,   3,0.2442
  3003,  -3005,'1 ',   0.00600,   0.05400,   0.09000,    0.00,    0.00,    0.00,  0.00000,  0.00000,  0.00000,  0.00000,1,  90.00,   2,0.2000,   3,0.3000,   4,0.4000,   5,0.1000
  3003,  -3005,'2 ',   0.00600,   0.05400,   0.09000,    0.00,    0.00,    0.00,  0.00000,  0.00000,  0.00000,  0.00000,1,  90.00,   1,0.1333,   2,0.2000,   3,0.2667,   4,0.4000
  3005,  -3006,'1 ',   0.00350,   0.03000,   0.07000,    0.00,    0.00,    0.00,  0.00000,  0.00000,  0.00000,  0.00000,1,  70.00,   5,0.1650,   1,0.2186,   2,0.2643,   3,0.3521
  3005,  -3007,'1 ',   0.00300,   0.02500,   0.06000,    0.00,    0.00,    0.00,  0.00000,  0.00000,  0.00000,  0.00000,1,  80.00,   2,0.1527,   3,0.2290,   4,0.3053,   5,0.3130
  3005,  -3008,'1 ',   0.00600,   0.05000,   0.12000,    0.00,    0.00,    0.00,  0.00000,  0.00000,  0.00000,  0.00000,0,  60.00,   1,0.1802,   2,0.2703,   3,0.3604,   4,0.1892
  3007,  -3008,'1 ',   0.00300,   0.02500,   0.06000,    0.00,    0.00,    0.00,  0.00000,  0.00000,  0.00000,  0.00000,1,  60.00,   5,0.1858,   1,0.2462,   2,0.4023,   3,0.1657
  3008,  -3009,'1 ',   0.00300,   0.02500,   0.06000,   25.00,   22.00,   18.00,  0.00000,  0.00000,  0.00000,  0.00000,1,  60.00,   1,0.1797,   2,0.2695,   3,0.3594,   4,0.1914
 0 / END OF NON-TRANSFORMER BRANCH DATA, BEGIN TRANSFORMER DATA
   101,   151,     0,'T1',1,1,1,   0.17147,  -0.10288,2,'NUCA GSU    ',1,   1,0.3200,   2,0.3900,   3,0.1400,   4,0.1500
   0.00009,   0.00758, 1200.00
1.00000,  21.600,   0.000, 1200.00, 1100.00, 1000.00, 1,   -101, 1.05000, 0.95000, 1.05000, 0.95000,  25, 0, 0.00021, 0.00051
1.00000, 500.000
   102,   151,     0,'T2',1,1,1,   0.00454,  -0.03113,2,'NUCB GSU    ',1,   1,0.2100,   2,0.2500,   3,0.2200,   4,0.3200
   0.00012,   0.00760, 1210.00
1.00000,  21.600,   0.000, 1210.00, 1125.00, 1025.00, 1,   -102, 1.04500, 0.95500, 1.04500, 0.95500,  27, 0, 0.00022, 0.00052
1.00000, 500.000
   152,   153,     0,'T3',1,1,1,   0.00021,  -0.00012,2,'MID LTC     ',1,   1,0.3500,   2,0.2200,   3,0.2500,   4,0.1800
   0.00017,   0.00775,  800.00
0.95000, 500.000,   0.000,  800.00,  750.00,  700.00, 1,    154, 1.05000, 0.95000, 1.00000, 0.98000,  10, 0, 0.00023, 0.00053
1.00000, 230.000
   152,  3021,     0,'T4',1,1,1,   0.00563,  -0.04162,2,'WDUM DC     ',1,   1,0.3900,   2,0.3200,   3,0.1500,   4,0.1400
   0.00009,   0.00420, 1500.00
1.10000, 500.000,   0.000, 1500.00, 1400.00, 1350.00, 4,      0,22.57200,20.62800, 1.10000, 0.90000,  33, 2, 0.00000, 0.00000
1.00000,  18.000
   152,  3022,     0,'T5',1,1,1,   0.00040,  -0.00021,2,'EDUM DC     ',1,   1,0.2200,   2,0.2500,   3,0.2100,   4,0.3200
   0.00011,   0.00490, 1510.00
1.10000, 500.000,   0.000, 1510.00, 1410.00, 1393.00, 4,      0, 1.10000, 0.90000, 1.10000, 0.90000,  33, 0, 0.00000, 0.00000
1.00000,  18.000
   154,  9154,     0,'W1',1,1,1,   0.00000,   0.00000,2,'WTG1XMER    ',1,   1,1.0000,   0,0.0000,   0,0.0000,   0,0.0000
   0.00000,   0.58333,   12.00
1.00000,   0.000,   0.000,   12.00,    0.00,    0.00, 0,      0, 1.10000, 0.90000, 1.10000, 0.90000,  33, 0, 0.00000, 0.00000
1.00000,   0.000
   201,   211,     0,'T6',1,1,1,   0.00262,  -0.02084,2,'HYDRO_G XMER',1,   1,0.1400,   2,0.1500,   3,0.3200,   4,0.3900
   0.00026,   0.01343,  700.00
1.00000, 500.000,   0.000,  700.00,  650.00,  611.00, 0,      0, 1.10000, 0.90000, 1.10000, 0.90000,   5, 0, 0.00000, 0.00000
1.00000,  20.000
   203,   202,     0,'T7',1,1,1,   0.00095,  -0.00046,1,'EAST PS     ',1,   1,0.2754,   2,0.3261,   3,0.2899,   4,0.1087
   0.00028,   0.00720,  750.00
0.99000, 230.000,   0.143,  750.00,  700.00,  657.00, 3,      0,12.00000,-11.0000,-900.000,-950.000,  33, 1, 0.00000, 0.00000
1.00000, 500.000
   204,   205,     0,'T8',1,1,1,   0.00113,  -0.00052,2,'SUB LTC     ',1,   1,0.3019,   2,0.4245,   3,0.1321,   4,0.1415
   0.00046,   0.00563,  800.00
1.03667, 500.000,   0.000,  800.00,  775.00,  717.00, 1,    205, 1.05000, 0.95000, 1.00000, 0.98000,  16, 0, 0.00024, 0.00054
1.00000, 230.000
   204,  9204,     0,'W2',1,1,1,   0.00000,   0.00000,2,'WTG2XMER    ',1,   2,1.0000,   0,0.0000,   0,0.0000,   0,0.0000
   0.08800,   0.66171,    8.75
1.00000,   0.000,   0.000,    8.75,    0.00,    0.00, 0,      0, 1.10000, 0.90000, 1.10000, 0.90000,  33, 0, 0.00000, 0.00000
1.00000,   0.000
   205,   206,     0,'T9',1,1,1,   0.00113,  -0.00052,2,'URB TX      ',1,   1,0.1905,   2,0.4643,   3,0.1667,   4,0.1786
   0.00018,   0.00533,  900.00
1.01591, 230.000,   0.000,  900.00,  850.00,  799.00, 2,      0, 1.05000, 0.97500,-175.000,-250.000,  12, 0, 0.00000, 0.00000
1.00000,  18.000
   205,   215,   216,'3 ',1,1,1,   0.00034,  -0.00340,2,'3WNDSTAT3   ',3,   2,0.2540,   2,0.1746,   3,0.3333,   4,0.2381
   0.00069,   0.06667,  150.00,   0.00690,   0.60000,   20.00,   0.00453,   0.50000,   15.00,1.02605, -33.2424
1.00000, 230.000,   0.000,  150.00,  130.00,  120.00,-1,    215, 1.10000, 0.90000, 1.10000, 0.90000,  33, 0, 0.00025, 0.00064
1.10000,  18.000,   0.000,   20.00,   18.00,   15.00
1.00000, 230.000,   0.000,   15.00,   13.00,   10.00
   205,   217,   218,'4 ',1,1,1,   0.00007,  -0.00048,2,'3WNDSTAT4   ',4,   2,0.4671,   2,0.1250,   3,0.2379,   4,0.1700
   0.02533,   0.33240,   30.00,   0.03040,   0.35871,   25.00,   0.02171,   0.21318,   35.00,0.99757, -33.1550
1.00000, 230.000,   0.000,   30.00,   20.00,   10.00, 0,      0, 1.10000, 0.90000, 1.10000, 0.90000,  33, 0, 0.00031, 0.00784
1.00000, 230.000,   0.000,   25.00,   18.00,   12.00
1.00000, 230.000,   0.000,   35.00,   26.00,   14.00
  3002, 93002,     0,'W3',1,1,1,   0.00000,   0.00000,2,'WTG3XMER    ',1,   5,1.0000,   0,0.0000,   0,0.0000,   0,0.0000
   0.00000,   2.02703,    3.70
1.00000,   0.000,   0.000,    3.70,    0.00,    0.00, 0,      0, 1.10000, 0.90000, 1.10000, 0.90000,  33, 0, 0.00000, 0.00000
1.00000,   0.000
  3002,  3001,  3011,'1 ',1,1,1,   0.00120,  -0.00420,2,'3WNDSTAT1   ',1,   1,0.1238,   2,0.2477,   3,0.1548,   5,0.4737
   0.00020,   0.02500, 1000.00,   0.00030,   0.01000, 1000.00,   0.00040,   0.01100, 1000.00,0.99004,   1.5349
1.01010, 500.000,   0.000, 1200.00, 1150.00, 1090.00, 1,  -3002, 1.10020, 0.92000, 1.16000, 0.93000,  33, 0, 0.00013, 0.00016
1.05000, 230.000,   0.000, 1250.00, 1175.00, 1112.00
1.01000,  19.400,   0.000, 1280.00, 1200.00, 1157.00
  3005,  3004,     0,'10',1,1,1,   0.00206,  -0.01859,1,'WEST TX     ',1,   1,0.2645,   2,0.4959,   3,0.1157,   4,0.1240
   0.00035,   0.00964,  550.00
1.00000, 230.000,   0.000,  550.00,  500.00,  455.00, 0,      0, 1.10000, 0.90000, 1.10000, 0.90000,   3, 0, 0.00000, 0.00000
1.00000, 500.000
  3008,  3018,     0,'11',1,1,1,   0.00197,  -0.01827,2,'CATDOG_XMER ',1,   1,0.2051,   2,0.2500,   3,0.4487,   4,0.0962
   0.00044,   0.01276,  525.00
1.00000, 230.000,   0.000,  525.00,  475.00,  423.00, 0,      0, 1.10000, 0.90000, 1.10000, 0.90000,  22, 2, 0.00000, 0.00000
1.00000,  13.800
  3008,  3009,  3010,'2 ',1,1,1,   0.00021,  -0.00012,1,'3WNDSTAT2   ',2,   5,0.8000,   3,0.0500,   2,0.1000,   1,0.0500
   0.00515,   0.50000,   20.00,   0.00920,   0.80000,   15.00,   0.00375,   0.41667,   25.00,0.98665, -25.3007
1.00000, 230.000,   0.000,   20.00,   18.00,   14.00, 0,      0, 1.10000, 0.90000, 1.10000, 0.90000,  33, 0, 0.00000, 0.00000
1.00000, 230.000,   0.000,   15.00,   13.00,    9.00
1.00000,  21.600,  30.000,   25.00,   19.00,   16.00
 0 / END OF TRANSFORMER DATA, BEGIN AREA INTERCHANGE DATA
   1,   101, -2800.000,    10.000,'CENTRAL     '
   2,   206, -1600.000,    10.000,'EAST        '
   3,   301,  2900.000,    55.000,'CENTRAL_DC  '
   4,   401,   300.000,    15.000,'EAST_COGEN1 '
   5,  3011,   900.000,    10.000,'WEST        '
   6,   402,   300.000,    20.000,'EAST_COGEN2 '
 0 / END OF AREA INTERCHANGE DATA, BEGIN TWO-TERMINAL DC DATA
  1,1,    7.8543,   1490.65,    525.00,    400.00,    3.9420,   0.15560,'I',      0.00,  20,   1.00000
   301, 2,13.00, 7.50, 0.0111, 3.8800, 500.0,0.44000,1.06275,1.10000,0.90000,0.00525,     0,     0,     0,'1 ', 2.0034
  3021, 2,21.00,18.50, 0.0000, 3.0470, 230.0,0.95652,1.07500,1.10000,0.80000,0.00625,     0,   152,  3021,'T4', 2.0000
  2,1,    8.2000,   1500.00,    525.00,    400.00,    4.1000,   0.15000,'I',      0.00,  20,   1.00000
   301, 2,12.00, 8.00, 0.0110, 3.8800, 500.0,0.44000,1.05450,1.11200,0.90000,0.00515,     0,     0,     0,'1 ', 0.0098
  3022, 2,20.00,18.00, 0.0120, 3.0470, 230.0,0.95652,1.06250,1.10000,0.80000,0.00625,     0,   152,  3022,'T5', 0.0074
 0 / END OF TWO-TERMINAL DC DATA, BEGIN VSC DC LINE DATA
'VDCLINE1    ',1,    0.7100,   1,0.3204,   2,0.3883,   3,0.1942,   4,0.0971
  3005,2,2,   -209.00, 0.95000,   100.000,     0.100,    50.000,    400.00,   1200.00,0.10000,    100.00,   -110.00,     0,  100.0
  3008,1,1,    100.00, 0.99000,    90.000,     0.150,    40.000,    350.00,   1200.00,0.15000,    150.00,   -140.00,     0,  100.0
'VDCLINE2    ',1,    0.3500,   1,0.3705,   2,0.3597,   3,0.1799,   4,0.0899
   203,2,1,   -100.00, 1.00000,   100.000,     0.150,   123.000,    200.00,   1200.00,1.00000,    200.00,   -150.00,     0,  100.0
   205,1,1,    100.00, 1.00000,    93.000,     0.120,    98.000,    250.00,   1250.00,1.00000,    225.00,   -250.00,     0,   99.0
 0 / END OF VSC DC LINE DATA, BEGIN SWITCHED SHUNT DATA
   152,1,1.04500,0.95500,     0,  100.00,'            ', -233.00, 1, -15.00, 2,  -5.00, 3, -10.00, 4,  -8.00, 5,  -7.00, 6,  -5.00, 7,  -7.00, 8,  -4.00
   154,1,1.04480,0.96500,     0,  100.00,'            ',  124.00, 1,  25.00, 2,  10.00, 2,  15.00, 1,  15.00, 2,   5.00, 3,   3.00, 2,   4.00, 1,   7.00
  3005,4,0.98000,0.64000,  3005,  100.00,'VDCLINE1    ',    0.00, 1,  33.35
  3021,2,1.00000,1.00000,     0,  100.00,'            ',  496.78, 2, 200.00, 1, 100.00, 2,  50.00, 4,  25.00
  3022,2,1.00000,1.00000,     0,  100.00,'            ',  597.16, 4, 100.00, 2,  50.00, 4,  25.00, 3,  20.00, 2,  20.00
 93002,1,0.99628,0.99628,     0,  100.00,'            ',    1.44, 1,   1.44
 0 / END OF SWITCHED SHUNT DATA, BEGIN TRANS. IMP. CORR. TABLE DATA
 1, -30.00, 1.10000, -24.00, 1.09100, -18.00, 1.08400, -12.00, 1.06300,  -6.00, 1.03200,   0.00, 1.00000,   6.00, 1.03000,  12.00, 1.06000,  18.00, 1.08000,  24.00, 1.09000,  30.00, 1.11000
 2,0.60000, 1.06000,0.70000, 1.05000,0.80000, 1.04000,0.90000, 1.03000,0.95000, 1.02000,1.00000, 1.01000,1.05000, 0.99000,1.10000, 0.98000,1.20000, 0.97000,1.30000, 0.96000,1.40000, 0.95000
 0 / END OF TRANS. IMP. CORR. TABLE DATA, BEGIN MULTI-TERMINAL DC LINE DATA
 1, 4, 5, 4, 1,   212,    400.00,     0
   402, 4,10.00, 8.00, 0.0000,19.0000, 500.0,0.22000,1.01000,1.10000,0.97000,0.01000,   321.00, 1.0000,  0.15000, 3
   401, 4,10.00, 8.00, 0.0000,19.0000, 500.0,0.22000,1.01000,1.10000,0.97000,0.01000,   321.00, 1.0000,  0.15000, 3
   212, 4,20.00,18.00, 0.0000,10.0000, 230.0,0.45200,1.04000,1.10000,0.90000,0.01000,   500.00, 1.0000,  0.00000, 1
   213, 4,20.00,18.00, 0.0000,10.0000, 230.0,0.45200,1.10000,1.10000,0.90000,0.01000,  -303.80, 1.0000,  0.00000, 4
  1,   401,   4,   4,'DC1         ', 0,   0.0000,   4
  2,   212,   2,   2,'DC2         ', 0,   0.0000,   2
  3,   402,   4,   4,'DC3         ', 0,   0.0000,   4
  4,   213,   2,   2,'DC4         ', 0,   0.0000,   2
  5,     0,   4,   4,'DC5         ', 0,   0.0000,   4
  1,  5,'1',   29.0000,     0.00
  2,  5,'1',   29.0000,     0.00
  3,  5,'1',   29.0000,     0.00
  4,  5,'1',   29.0000,     0.00
 0 / END OF MULTI-TERMINAL DC LINE DATA, BEGIN MULTI-SECTION LINE DATA
   201,   -204,'&1',   207
 0 / END OF MULTI-SECTION LINE DATA, BEGIN ZONE DATA
   1,'NORTH_A1    '
   2,'MID_A1_A2_A5'
   3,'DISCNT_IN_A1'
   4,'SOUTH_A1_A5 '
   5,'ALL_A3      '
   6,'NORTH_A5    '
   7,'NORTH_A2    '
   8,'SOUTH_A2    '
   9,'ALL_A4_A6   '
 0 / END OF ZONE DATA, BEGIN INTERAREA TRANSFER DATA
   1,   2,'A',  1000.00
   1,   5,'B', -3800.00
   2,   4,'C',  -300.00
   2,   6,'E',  -300.00
   3,   5,'D',  2900.00
 0 / END OF INTERAREA TRANSFER DATA, BEGIN OWNER DATA
   1,'OWNER 1     '
   2,'OWNER 2     '
   3,'OWNER 3     '
   4,'OWNER 4     '
   5,'OWNER 5     '
 0 / END OF OWNER DATA, BEGIN FACTS DEVICE DATA
 1,   153,     0,1,     0.000,     0.000,1.01500,    50.000,   100.000,0.92630,1.13400,1.00000,     0.000, 0.05652,  100.00,   1,   0.00000,   0.00000,0
 2,   153,   155,1,   350.000,    40.000,1.01500,    25.000,  9999.000,0.90000,1.10000,1.00000,     0.000, 0.05000,  100.00,   1,   0.00000,   0.00000,0
 0 / END OF FACTS DEVICE DATA, END OF CASE DATA
